-------------------------------------------------------
          Amber 12 SANDER                              2012
          -------------------------------------------------------

  [-O]verwriting output

File Assignments:

 Here is the input file:

Equilibration run (100ps)
&cntrl
 imin=0,
 ioutfm=1,
 iwrap=1,
 irest=0,
 ntx=1,
 ig=-1,
 ntb=2, pres0=1.0, ntp=1, taup=1.0,
 cut=10, ntc=2, ntf=2,
 tempi=300.0, temp0=300.0,
 ntt=3, gamma_ln=1.0,
 nstlim=50000, dt=0.002,
 ntpr=500, ntwx=500, ntwr=500,
&end

# imin=0    no minimization
# ioutfm=1  to use netcdf binary output
# iwrap=1   to do imaging
# irest=0   do not restart the simulation
# ntx=1     load only coordinates from input file
# ig=-1     reseed random number generator

# ntb=2     constant pressure
# pres0=1.0  pressure target at 1.0 atm
# ntp=1     isotropic pressure scaling
# taup=1.0  pressure relaxation time, in picoseconds

# cut=10    pme cutoffs
# ntc=2     HBond constraints
# ntf=2     HBond constraints in force evaluations

# ntt=3     Langevin integrator

Note: ig = -1. Setting random seed based on wallclock time in microseconds.

--------------------------------------------------------------------------------
   1.  RESOURCE   USE:
--------------------------------------------------------------------------------

 getting new box info from bottom of inpcrd

 NATOM  =    2519 NTYPES =      10 NBONH =    2493 MBONA  =      25
 NTHETH =      59 MTHETA =      34 NPHIH =     102 MPHIA  =      86
 NHPARM =       0 NPARM  =       0 NNB   =    3558 NRES   =     827
 NBONA  =      25 NTHETA =      34 NPHIA =      86 NUMBND =      14
 NUMANG =      23 NPTRA  =      19 NATYP =      12 NPHB   =       1
 IFBOX  =       1 NMXRS  =      12 IFCAP =       0 NEXTRA =       0
 NCOPY  =       0

     BOX TYPE: RECTILINEAR

--------------------------------------------------------------------------------
   2.  CONTROL  DATA  FOR  THE  RUN
--------------------------------------------------------------------------------

General flags:
     imin    =       0, nmropt  =       0

Nature and format of input:
     ntx     =       1, irest   =       0, ntrx    =       1

Nature and format of output:
     ntxo    =       1, ntpr    =     500, ntrx    =       1, ntwr    =     500
     iwrap   =       1, ntwx    =     500, ntwv    =       0, ntwe    =       0
     ioutfm  =       1, ntwprt  =       0, idecomp =       0, rbornstat=      0

Potential function:
     ntf     =       2, ntb     =       2, igb     =       0, nsnb    =      25
     ipol    =       0, gbsa    =       0, iesp    =       0
     dielc   =   1.00000, cut     =  10.00000, intdiel =   1.00000

Frozen or restrained atoms:
     ibelly  =       0, ntr     =       0

Molecular dynamics:
     nstlim  =     50000, nscm    =      1000, nrespa  =         1
     t       =   0.00000, dt      =   0.00200, vlimit  =  20.00000

Langevin dynamics temperature regulation:
     ig      =   90315
     temp0   = 300.00000, tempi   = 300.00000, gamma_ln=   1.00000

Pressure regulation:
     ntp     =       1
     pres0   =   1.00000, comp    =  44.60000, taup    =   1.00000

SHAKE:
     ntc     =       2, jfastw  =       0
     tol     =   0.00001

Ewald parameters:
     verbose =       0, ew_type =       0, nbflag  =       1, use_pme =       1
     vdwmeth =       1, eedmeth =       1, netfrc  =       1
     Box X =   44.344   Box Y =   30.860   Box Z =   28.185
     Alpha =   90.000   Beta  =   90.000   Gamma =   90.000
     NFFT1 =   48       NFFT2 =   32       NFFT3 =   30
     Cutoff=   10.000   Tol   =0.100E-04
     Ewald Coefficient =  0.27511
     Interpolation order =    4

--------------------------------------------------------------------------------
   3.  ATOMIC COORDINATES AND VELOCITIES
--------------------------------------------------------------------------------

 begin time read from input coords =     0.000 ps

 Number of triangulated 3-point waters found:      822

     Sum of charges from parm topology file =  -0.00000001
     Forcing neutrality...

--------------------------------------------------------------------------------
   4.  RESULTS
 NSTEP =        0   TIME(PS) =       0.000  TEMP(K) =   436.29  PRESS = -1397.1
 Etot   =     -8385.3472  EKtot   =      2195.2022  EPtot      =    -10580.5495
 BOND   =         1.6320  ANGLE   =         3.3142  DIHED      =        23.6521
 1-4 NB =         7.6147  1-4 EEL =       366.3071  VDWAALS    =      2155.5465
 EELEC  =    -13138.6161  EHBOND  =         0.0000  RESTRAINT  =         0.0000
 EKCMT  =       690.7380  VIRIAL  =      1854.1890  VOLUME     =     38569.9265
                                                    Density    =         0.6537
 Ewald error estimate:   0.3931E-03
 ------------------------------------------------------------------------------

      A V E R A G E S   O V E R     100 S T E P S

 NSTEP =    50000   TIME(PS) =     100.000  TEMP(K) =   298.18  PRESS =   -49.0
 Etot   =     -6447.7052  EKtot   =      1500.3090  EPtot      =     -7948.0143
 BOND   =         8.5552  ANGLE   =        23.6186  DIHED      =        30.6661
 1-4 NB =         9.0844  1-4 EEL =       368.4619  VDWAALS    =      1154.9072
 EELEC  =     -9543.3077  EHBOND  =         0.0000  RESTRAINT  =         0.0000
 EKCMT  =       735.1293  VIRIAL  =       775.1558  VOLUME     =     26375.1971
                                                    Density    =         0.9631
 Ewald error estimate:   0.2226E-03
 ------------------------------------------------------------------------------

      R M S  F L U C T U A T I O N S

 NSTEP =    50000   TIME(PS) =     100.000  TEMP(K) =     8.18  PRESS =   392.7
 Etot   =       102.3877  EKtot   =        41.1473  EPtot      =        96.0312
 BOND   =         2.4765  ANGLE   =         3.6542  DIHED      =         2.2471
 1-4 NB =         1.3197  1-4 EEL =         4.4989  VDWAALS    =        45.5114
 EELEC  =       121.8977  EHBOND  =         0.0000  RESTRAINT  =         0.0000
 EKCMT  =        25.0600  VIRIAL  =       243.6965  VOLUME     =      2564.4627
                                                    Density    =         0.0740
 Ewald error estimate:   0.1516E-03
 ------------------------------------------------------------------------------
